IMS_700_2OYU
 OpenBabel11121216223D

 55 57  0  0  1  0  0  0  0  0999 V2000
   21.0280   48.3140    5.6190 C   0  0  0  0  0  0  0  0  0  0  0  0
   18.8570   47.8480   11.4390 C   0  0  0  0  0  0  0  0  0  0  0  0
   25.4210   53.0200   12.4750 C   0  0  0  0  0  0  0  0  0  0  0  0
   19.1370   47.6630   16.1890 C   0  0  0  0  0  0  0  0  0  0  0  0
   17.7930   48.4810   14.3570 C   0  0  0  0  0  0  0  0  0  0  0  0
   18.0310   47.7060   17.0020 C   0  0  0  0  0  0  0  0  0  0  0  0
   16.6830   48.5200   15.1730 C   0  0  0  0  0  0  0  0  0  0  0  0
   23.1720   51.3710   13.8250 C   0  0  0  0  0  0  0  0  0  0  0  0
   22.3170   50.3000   14.1050 C   0  0  0  0  0  0  0  0  0  0  0  0
   22.2930   51.5060   11.6120 C   0  0  0  0  0  0  0  0  0  0  0  0
   20.0920   49.4540    5.3190 C   0  0  0  0  0  0  0  0  0  0  0  0
   20.1760   50.2210    9.6700 C   0  0  0  0  0  0  0  0  0  0  0  0
   18.1160   48.1180    6.1740 C   0  0  0  0  0  0  0  0  0  0  0  0
   19.9190   48.8070   11.8580 C   0  0  0  0  0  0  0  0  0  0  0  0
   19.0010   48.0700   14.8830 C   0  0  0  0  0  0  0  0  0  0  0  0
   16.8100   48.1290   16.4970 C   0  0  0  0  0  0  0  0  0  0  0  0
   23.1730   51.9800   12.5790 C   0  0  0  0  0  0  0  0  0  0  0  0
   21.4450   49.8250   13.1340 C   0  0  0  0  0  0  0  0  0  0  0  0
   21.4370   50.4380   11.8950 C   0  0  0  0  0  0  0  0  0  0  0  0
   20.4900   49.8050   11.0860 C   0  0  0  0  0  0  0  0  0  0  0  0
   18.8530   49.4610    6.2070 C   0  0  1  0  0  0  0  0  0  0  0  0
   19.8330   49.2030    8.6070 C   0  0  0  0  0  0  0  0  0  0  0  0
   20.2220   47.9930   14.0640 C   0  0  0  0  0  0  0  0  0  0  0  0
   19.3340   49.8460    7.5390 N   0  0  0  0  0  0  0  0  0  0  0  0
   20.5130   48.8760   13.0480 N   0  0  0  0  0  0  0  0  0  0  0  0
   17.1810   48.1140    5.0710 O   0  0  0  0  0  0  0  0  0  0  0  0
   20.0140   48.0060    8.7490 O   0  0  0  0  0  0  0  0  0  0  0  0
   20.9480   47.0560   14.3590 O   0  0  0  0  0  0  0  0  0  0  0  0
   24.0020   53.0480   12.3040 O   0  0  0  0  0  0  0  0  0  0  0  0
   15.6260   48.1510   17.4230 Cl  0  0  0  0  0  0  0  0  0  0  0  0
   21.8974   48.3662    4.9471 H   0  0  0  0  0  0  0  0  0  0  0  0
   21.3671   48.3833    6.6631 H   0  0  0  0  0  0  0  0  0  0  0  0
   20.5035   47.3592    5.4662 H   0  0  0  0  0  0  0  0  0  0  0  0
   19.3230   46.9474   11.0126 H   0  0  0  0  0  0  0  0  0  0  0  0
   18.2504   47.5681   12.3129 H   0  0  0  0  0  0  0  0  0  0  0  0
   18.2138   48.3211   10.6824 H   0  0  0  0  0  0  0  0  0  0  0  0
   25.8449   53.9933   12.1867 H   0  0  0  0  0  0  0  0  0  0  0  0
   25.6591   52.8143   13.5290 H   0  0  0  0  0  0  0  0  0  0  0  0
   25.8510   52.2307   11.8410 H   0  0  0  0  0  0  0  0  0  0  0  0
   20.0887   47.3185   16.5658 H   0  0  0  0  0  0  0  0  0  0  0  0
   17.7185   48.7685   13.3187 H   0  0  0  0  0  0  0  0  0  0  0  0
   18.1120   47.4097   18.0374 H   0  0  0  0  0  0  0  0  0  0  0  0
   15.7297   48.8498   14.7873 H   0  0  0  0  0  0  0  0  0  0  0  0
   23.8426   51.7297   14.5919 H   0  0  0  0  0  0  0  0  0  0  0  0
   22.3350   49.8398   15.0819 H   0  0  0  0  0  0  0  0  0  0  0  0
   22.2709   51.9665   10.6353 H   0  0  0  0  0  0  0  0  0  0  0  0
   20.6353   50.3972    5.4777 H   0  0  0  0  0  0  0  0  0  0  0  0
   19.7656   49.3658    4.2723 H   0  0  0  0  0  0  0  0  0  0  0  0
   19.2996   50.8819    9.7421 H   0  0  0  0  0  0  0  0  0  0  0  0
   21.0758   50.7386    9.3061 H   0  0  0  0  0  0  0  0  0  0  0  0
   18.8427   47.3026    6.0433 H   0  0  0  0  0  0  0  0  0  0  0  0
   17.5712   47.9740    7.1187 H   0  0  0  0  0  0  0  0  0  0  0  0
   18.0924   50.1745    5.8570 H   0  0  0  0  0  0  0  0  0  0  0  0
   19.2756   50.8330    7.6885 H   0  0  0  0  0  0  0  0  0  0  0  0
   16.7220   47.2826    5.0474 H   0  0  0  0  0  0  0  0  0  0  0  0
  1 11  1  0  0  0  0
  1 31  1  0  0  0  0
  1 32  1  0  0  0  0
  1 33  1  0  0  0  0
  2 14  1  0  0  0  0
  2 34  1  0  0  0  0
  2 35  1  0  0  0  0
  2 36  1  0  0  0  0
  3 29  1  0  0  0  0
  3 37  1  0  0  0  0
  3 38  1  0  0  0  0
  3 39  1  0  0  0  0
  4  6  2  0  0  0  0
  4 15  1  0  0  0  0
  4 40  1  0  0  0  0
  5  7  1  0  0  0  0
  5 15  2  0  0  0  0
  5 41  1  0  0  0  0
  6 16  1  0  0  0  0
  6 42  1  0  0  0  0
  7 16  2  0  0  0  0
  7 43  1  0  0  0  0
  8  9  2  0  0  0  0
  8 17  1  0  0  0  0
  8 44  1  0  0  0  0
  9 18  1  0  0  0  0
  9 45  1  0  0  0  0
 10 17  2  0  0  0  0
 10 19  1  0  0  0  0
 10 46  1  0  0  0  0
 11 21  1  0  0  0  0
 11 47  1  0  0  0  0
 11 48  1  0  0  0  0
 12 20  1  0  0  0  0
 12 22  1  0  0  0  0
 12 49  1  0  0  0  0
 12 50  1  0  0  0  0
 13 21  1  0  0  0  0
 13 26  1  0  0  0  0
 13 51  1  0  0  0  0
 13 52  1  0  0  0  0
 14 20  2  0  0  0  0
 14 25  1  0  0  0  0
 15 23  1  0  0  0  0
 16 30  1  0  0  0  0
 17 29  1  0  0  0  0
 18 19  2  0  0  0  0
 18 25  1  0  0  0  0
 19 20  1  0  0  0  0
 21 24  1  0  0  0  0
 21 53  1  6  0  0  0
 22 24  1  0  0  0  0
 22 27  2  0  0  0  0
 23 25  1  0  0  0  0
 23 28  2  0  0  0  0
 24 54  1  0  0  0  0
 26 55  1  0  0  0  0
M  END
$$$$
