
 OpenBabel06051719493D

 15 15  0  0  0  0  0  0  0  0999 V2000
   43.8380  -40.5050   75.5450 C   0  0  0  0  0
   37.8220  -44.0850   71.6600 C   0  0  0  0  0
   37.5780  -43.4290   69.4150 C   0  0  0  0  0
   40.3050  -44.0100   74.8240 C   0  0  0  0  0
   42.7750  -41.1180   74.6630 C   0  0  0  0  0
   42.0430  -42.2190   75.0860 C   0  0  0  0  0
   41.0610  -42.8130   74.2970 C   0  0  0  0  0
   40.8220  -42.2590   73.0290 C   0  0  0  0  0
   41.5460  -41.1500   72.5640 C   0  0  0  0  0
   42.5160  -40.6050   73.4010 C   0  0  0  0  0
   41.3160  -40.5470   71.2050 C   0  0  0  0  0
   38.5590  -43.1100   72.5360 C   0  0  0  0  0
   39.8270  -42.8380   72.1770 N   0  0  0  0  0
   37.9900  -42.6530   73.5190 O   0  0  0  0  0
   38.3500  -44.1660   70.3600 O   0  0  0  0  0
  1  5  1  0  0  0
  2 12  1  0  0  0
  2 15  1  0  0  0
  3 15  1  0  0  0
  4  7  1  0  0  0
  5  6  2  0  0  0
  5 10  1  0  0  0
  6  7  1  0  0  0
  7  8  2  0  0  0
  8  9  1  0  0  0
  8 13  1  0  0  0
  9 10  2  0  0  0
  9 11  1  0  0  0
 12 13  1  0  0  0
 12 14  2  0  0  0
M  END
