
 OpenBabel06051719513D

 15 17  0  0  0  0  0  0  0  0999 V2000
   29.2630  -45.1730   73.8460 C   0  0  0  0  0
   37.5430  -46.6210   74.5090 C   0  0  0  0  0
   38.7930  -46.0820   74.2450 C   0  0  0  0  0
   30.3800  -44.8860   74.6890 C   0  0  0  0  0
   31.5430  -45.3560   74.1430 C   0  0  0  0  0
   29.5870  -45.8960   72.7630 C   0  0  0  0  0
   32.8720  -45.3610   74.7260 C   0  0  0  0  0
   33.2370  -45.1090   76.0240 C   0  0  0  0  0
   34.5780  -45.4470   76.2870 C   0  0  0  0  0
   35.3120  -45.5650   75.1170 C   0  0  0  0  0
   36.7240  -45.5570   74.8040 C   0  0  0  0  0
   38.7610  -44.7530   74.3540 N   0  0  0  0  0
   37.4840  -44.4410   74.6930 N   0  0  0  0  0
   31.2660  -45.9980   72.5700 S   0  0  0  0  0
   34.2600  -45.7390   73.7630 S   0  0  0  0  0
  1  4  1  0  0  0
  1  6  2  0  0  0
  2  3  1  0  0  0
  2 11  2  0  0  0
  3 12  2  0  0  0
  4  5  2  0  0  0
  5  7  1  0  0  0
  5 14  1  0  0  0
  6 14  1  0  0  0
  7  8  2  0  0  0
  7 15  1  0  0  0
  8  9  1  0  0  0
  9 10  2  0  0  0
 10 11  1  0  0  0
 10 15  1  0  0  0
 11 13  1  0  0  0
 12 13  1  0  0  0
M  END
