****
 OpenBabel10211111323D

 32 34  0  0  0  0  0  0  0  0999 V2000
   40.6790   22.6620   21.8370 C   0  0  0  0  0
   39.9280   22.8690   20.7290 N   0  0  0  0  0
   38.6530   22.4260   20.9470 C   0  0  0  0  0
   38.6030   21.9240   22.2360 N   0  0  0  0  0
   39.8310   22.0570   22.8020 C   0  0  0  0  0
   40.3600   21.7320   24.0480 C   0  0  0  0  0
   42.0330   22.9360   22.1260 C   0  0  0  0  0
   37.5710   22.5070   19.8910 C   0  0  0  0  0
   42.5490   22.5980   23.3900 C   0  0  0  0  0
   41.7080   22.0010   24.3360 C   0  0  0  0  0
   42.9224   23.6127   21.1105 C   0  0  0  0  0
   42.4494   23.9837   19.9241 N   0  0  0  0  0
   44.0944   23.8335   21.3672 O   0  0  0  0  0
   37.9370   22.5990   18.5340 C   0  0  0  0  0
   36.2060   22.5290   20.2400 C   0  0  0  0  0
   36.9460   22.7190   17.5480 C   0  0  0  0  0
   37.2660   22.7800   16.1600 O   0  0  0  0  0
   35.5880   22.7470   17.9180 C   0  0  0  0  0
   35.2060   22.6510   19.2600 C   0  0  0  0  0
   38.5440   22.3580   15.7040 C   0  0  0  0  0
   39.7292   21.2697   24.7986 H   0  0  0  0  0
   43.5873   22.7978   23.6290 H   0  0  0  0  0
   42.1050   21.7410   25.3106 H   0  0  0  0  0
   43.2447   24.4445   19.3570 H   0  0  0  0  0
   42.0879   23.1204   19.3853 H   0  0  0  0  0
   38.9834   22.5771   18.2517 H   0  0  0  0  0
   35.9221   22.4504   21.2832 H   0  0  0  0  0
   34.8275   22.8444   17.1517 H   0  0  0  0  0
   34.1587   22.6703   19.5389 H   0  0  0  0  0
   38.5936   22.4822   14.6122 H   0  0  0  0  0
   39.3297   22.9706   16.1702 H   0  0  0  0  0
   38.6991   21.2975   15.9513 H   0  0  0  0  0
  2  1  1  0  0  0
  5  1  2  0  0  0
  1  7  1  0  0  0
  3  2  1  0  0  0
  3  4  2  0  0  0
  8  3  1  0  0  0
  4  5  1  0  0  0
  5  6  1  0  0  0
  6 10  2  0  0  0
  6 21  1  0  0  0
  7  9  2  0  0  0
  7 11  1  0  0  0
 14  8  2  0  0  0
  8 15  1  0  0  0
 10  9  1  0  0  0
  9 22  1  0  0  0
 10 23  1  0  0  0
 11 12  1  0  0  0
 11 13  2  0  0  0
 12 24  1  0  0  0
 12 25  1  0  0  0
 16 14  1  0  0  0
 14 26  1  0  0  0
 15 19  2  0  0  0
 15 27  1  0  0  0
 17 16  1  0  0  0
 16 18  2  0  0  0
 20 17  1  0  0  0
 18 19  1  0  0  0
 18 28  1  0  0  0
 19 29  1  0  0  0
 20 30  1  0  0  0
 20 31  1  0  0  0
 20 32  1  0  0  0
M  END
$$$$
