obj01.pdb
 OpenBabel10271115403D

 64 65  0  0  0  0  0  0  0  0999 V2000
   21.3330  -17.7760   16.1020 C   0  0  0  0  0
   22.4300  -17.1290   16.6000 O   0  0  0  0  0
   20.2730  -17.8810   16.7210 O   0  0  0  0  0
   21.5520  -18.3230   14.6680 C   0  0  0  0  0
   21.6430  -19.8530   14.5230 C   0  0  0  0  0
   22.9000  -20.2850   15.0620 O   0  0  0  0  0
   21.5760  -20.2910   13.0400 C   0  0  0  0  0
   21.3160  -21.7990   12.8680 C   0  0  0  0  0
   21.7170  -22.1620   11.5700 O   0  0  0  0  0
   19.8410  -22.1420   13.0340 C   0  0  0  0  0
   19.5960  -23.6230   13.3820 C   0  0  0  0  0
   18.1260  -23.9410   13.7790 C   0  0  0  0  0
   17.0440  -23.3900   12.7680 C   0  0  0  0  0
   17.1750  -23.9600   11.3380 C   0  0  0  0  0
   15.6310  -23.7600   13.2610 C   0  0  0  0  0
   15.3660  -24.8230   14.0660 C   0  0  0  0  0
   16.3390  -25.6710   14.5230 C   0  0  0  0  0
   17.8430  -25.4500   14.1400 C   0  0  0  0  0
   18.8480  -26.0890   15.1520 C   0  0  0  0  0
   18.8660  -25.2840   16.3630 O   0  0  0  0  0
   18.4620  -27.5690   15.4610 C   0  0  0  0  0
   16.9830  -27.7330   15.9210 C   0  0  0  0  0
   15.9900  -26.7170   15.3290 C   0  0  0  0  0
   20.0620  -25.0890   17.0330 C   0  0  0  0  0
   21.1610  -25.5550   16.6930 O   0  0  0  0  0
   19.8610  -24.1970   18.2820 C   0  0  0  0  0
   18.3820  -24.1800   18.8020 C   0  0  0  0  0
   18.0340  -25.0890   20.0190 C   0  0  0  0  0
   20.8890  -24.4750   19.4000 C   0  0  0  0  0
   23.5950  -19.8670   14.5480 H   0  0  0  0  0
   20.8020  -20.2980   15.0540 H   0  0  0  0  0
   21.5740  -23.1060   11.4750 H   0  0  0  0  0
   21.8750  -22.3390   13.6320 H   0  0  0  0  0
   18.0140  -23.3790   14.7060 H   0  0  0  0  0
   17.2090  -22.3130   12.7300 H   0  0  0  0  0
   14.8040  -23.1390   12.9490 H   0  0  0  0  0
   14.3430  -25.0070   14.3580 H   0  0  0  0  0
   18.0320  -26.0120   13.2250 H   0  0  0  0  0
   19.8470  -26.1050   14.7160 H   0  0  0  0  0
   14.9440  -26.8400   15.5680 H   0  0  0  0  0
   20.0620  -23.1810   17.9430 H   0  0  0  0  0
   22.4820  -17.8990   14.2900 H   0  0  0  0  0
   20.7200  -17.9810   14.0520 H   0  0  0  0  0
   22.5250  -20.0460   12.5620 H   0  0  0  0  0
   20.7710  -19.7420   12.5520 H   0  0  0  0  0
   19.3260  -21.9160   12.1000 H   0  0  0  0  0
   19.4300  -21.5260   13.8340 H   0  0  0  0  0
   20.2430  -23.8910   14.2170 H   0  0  0  0  0
   19.8550  -24.2270   12.5130 H   0  0  0  0  0
   18.6120  -28.1620   14.5590 H   0  0  0  0  0
   19.1140  -27.9390   16.2520 H   0  0  0  0  0
   16.6510  -28.7320   15.6370 H   0  0  0  0  0
   16.9560  -27.6360   17.0060 H   0  0  0  0  0
   17.7420  -24.4850   17.9740 H   0  0  0  0  0
   18.1470  -23.1540   19.0840 H   0  0  0  0  0
   18.2570  -26.1270   19.7720 H   0  0  0  0  0
   16.9740  -24.9910   20.2550 H   0  0  0  0  0
   18.6280  -24.7850   20.8810 H   0  0  0  0  0
   21.8940  -24.4740   18.9780 H   0  0  0  0  0
   20.6840  -25.4470   19.8490 H   0  0  0  0  0
   20.8150  -23.7000   20.1630 H   0  0  0  0  0
   18.1630  -23.7240   10.9420 H   0  0  0  0  0
   16.4120  -23.5170   10.6990 H   0  0  0  0  0
   17.0430  -25.0420   11.3650 H   0  0  0  0  0
  1  2  2  0  0  0
  1  3  1  0  0  0
  1  4  1  0  0  0
  4  5  1  0  0  0
  4 42  1  0  0  0
  4 43  1  0  0  0
  5  6  1  0  0  0
  5  7  1  0  0  0
  5 31  1  0  0  0
  6 30  1  0  0  0
  7  8  1  0  0  0
  7 44  1  0  0  0
  7 45  1  0  0  0
  8  9  1  0  0  0
  8 10  1  0  0  0
  8 33  1  0  0  0
  9 32  1  0  0  0
 10 11  1  0  0  0
 10 46  1  0  0  0
 10 47  1  0  0  0
 11 12  1  0  0  0
 11 48  1  0  0  0
 11 49  1  0  0  0
 12 13  1  0  0  0
 12 18  1  0  0  0
 12 34  1  0  0  0
 13 14  1  0  0  0
 13 15  1  0  0  0
 13 35  1  0  0  0
 14 62  1  0  0  0
 14 63  1  0  0  0
 14 64  1  0  0  0
 15 16  2  0  0  0
 15 36  1  0  0  0
 16 17  1  0  0  0
 16 37  1  0  0  0
 17 18  1  0  0  0
 17 23  2  0  0  0
 18 19  1  0  0  0
 18 38  1  0  0  0
 19 20  1  0  0  0
 19 21  1  0  0  0
 19 39  1  0  0  0
 20 24  1  0  0  0
 21 22  1  0  0  0
 21 50  1  0  0  0
 21 51  1  0  0  0
 22 23  1  0  0  0
 22 52  1  0  0  0
 22 53  1  0  0  0
 23 40  1  0  0  0
 24 25  2  0  0  0
 24 26  1  0  0  0
 26 27  1  0  0  0
 26 29  1  0  0  0
 26 41  1  0  0  0
 27 28  1  0  0  0
 27 54  1  0  0  0
 27 55  1  0  0  0
 28 56  1  0  0  0
 28 57  1  0  0  0
 28 58  1  0  0  0
 29 59  1  0  0  0
 29 60  1  0  0  0
 29 61  1  0  0  0
M  END
$$$$
