E2020
 OpenBabel09301112353D

 58 61  0  0  0  0  0  0  0  0999 V2000
    1.0570   60.0560   71.2400 C   0  0  0  0  0
    0.1880   61.0790   71.6280 C   0  0  0  0  0
    0.3470   62.4150   71.1710 C   0  0  0  0  0
    1.4470   62.7200   70.2700 C   0  0  0  0  0
    2.3060   61.6650   69.8810 C   0  0  0  0  0
    2.1400   60.3710   70.3620 C   0  0  0  0  0
    3.3650   62.0940   69.0160 C   0  0  0  0  0
    3.0860   63.5900   68.7400 C   0  0  0  0  0
    1.8390   63.9920   69.5580 C   0  0  0  0  0
    4.1050   64.5760   69.2450 C   0  0  0  0  0
    4.3070   65.8480   68.5330 C   0  0  0  0  0
    5.0060   65.6370   67.1950 C   0  0  0  0  0
    5.1610   66.9190   66.4250 C   0  0  0  0  0
    3.8540   67.6350   66.2370 N   0  0  0  0  0
    3.1770   67.9970   67.5350 C   0  0  0  0  0
    3.0040   66.7080   68.3900 C   0  0  0  0  0
    3.7430   68.9430   65.4830 C   0  0  0  0  0
    3.9920   68.8470   63.9880 C   0  0  0  0  0
    2.8640   68.6750   63.1260 C   0  0  0  0  0
    3.0520   68.4320   61.7230 C   0  0  0  0  0
    4.3450   68.3900   61.1950 C   0  0  0  0  0
    5.4790   68.5980   62.0460 C   0  0  0  0  0
    5.3100   68.8690   63.4400 C   0  0  0  0  0
    4.3250   61.3750   68.6150 O   0  0  0  0  0
    0.8900   58.7620   71.6440 O   0  0  0  0  0
    1.8420   57.6470   71.2650 C   0  0  0  0  0
   -0.9250   61.0250   72.3210 O   0  0  0  0  0
   -1.4340   59.8620   72.9280 C   0  0  0  0  0
   -0.3388   63.1923   71.4880 H   0  0  0  0  0
    2.8376   59.5948   70.0687 H   0  0  0  0  0
    2.9180   63.7329   67.6624 H   0  0  0  0  0
    1.0376   64.3350   68.8871 H   0  0  0  0  0
    2.0936   64.7864   70.2750 H   0  0  0  0  0
    3.8197   64.8412   70.2737 H   0  0  0  0  0
    5.0794   64.0657   69.2458 H   0  0  0  0  0
    5.0043   66.4403   69.1437 H   0  0  0  0  0
    6.0083   65.2206   67.3736 H   0  0  0  0  0
    4.4134   64.9396   66.5847 H   0  0  0  0  0
    5.8422   67.5873   66.9720 H   0  0  0  0  0
    5.5745   66.6940   65.4309 H   0  0  0  0  0
    3.2667   66.9705   65.7580 H   0  0  0  0  0
    3.7942   68.7169   68.0924 H   0  0  0  0  0
    2.1859   68.4295   67.3337 H   0  0  0  0  0
    2.2277   66.0924   67.9121 H   0  0  0  0  0
    2.6741   67.0151   69.3934 H   0  0  0  0  0
    2.7270   69.3402   65.6236 H   0  0  0  0  0
    4.4811   69.6462   65.8961 H   0  0  0  0  0
    1.8611   68.7283   63.5339 H   0  0  0  0  0
    2.1948   68.2819   61.0767 H   0  0  0  0  0
    4.4908   68.1994   60.1379 H   0  0  0  0  0
    6.4779   68.5493   61.6277 H   0  0  0  0  0
    6.1661   69.0869   64.0683 H   0  0  0  0  0
    1.4884   56.7065   71.7127 H   0  0  0  0  0
    1.8711   57.5342   70.1712 H   0  0  0  0  0
    2.8498   57.8684   71.6462 H   0  0  0  0  0
   -2.3759   60.1082   73.4401 H   0  0  0  0  0
   -1.6314   59.0958   72.1639 H   0  0  0  0  0
   -0.7145   59.4786   73.6664 H   0  0  0  0  0
  1 25  1  0  0  0
  1  6  2  0  0  0
  1  2  1  0  0  0
  2 27  1  0  0  0
  2  3  2  0  0  0
  3  4  1  0  0  0
  3 29  1  0  0  0
  4  9  1  0  0  0
  4  5  2  0  0  0
  5  7  1  0  0  0
  5  6  1  0  0  0
  6 30  1  0  0  0
  7 24  2  0  0  0
  7  8  1  0  0  0
  8 10  1  0  0  0
  8  9  1  0  0  0
  8 31  1  0  0  0
  9 32  1  0  0  0
  9 33  1  0  0  0
 10 11  1  0  0  0
 10 34  1  0  0  0
 10 35  1  0  0  0
 11 16  1  0  0  0
 11 12  1  0  0  0
 11 36  1  0  0  0
 12 13  1  0  0  0
 12 37  1  0  0  0
 12 38  1  0  0  0
 13 14  1  0  0  0
 13 39  1  0  0  0
 13 40  1  0  0  0
 14 17  1  0  0  0
 14 15  1  0  0  0
 14 41  1  0  0  0
 15 16  1  0  0  0
 15 42  1  0  0  0
 15 43  1  0  0  0
 16 44  1  0  0  0
 16 45  1  0  0  0
 17 18  1  0  0  0
 17 46  1  0  0  0
 17 47  1  0  0  0
 18 23  2  0  0  0
 18 19  1  0  0  0
 19 20  2  0  0  0
 19 48  1  0  0  0
 20 21  1  0  0  0
 20 49  1  0  0  0
 21 22  2  0  0  0
 21 50  1  0  0  0
 22 23  1  0  0  0
 22 51  1  0  0  0
 23 52  1  0  0  0
 25 26  1  0  0  0
 26 53  1  0  0  0
 26 54  1  0  0  0
 26 55  1  0  0  0
 27 28  1  0  0  0
 28 56  1  0  0  0
 28 57  1  0  0  0
 28 58  1  0  0  0
M  END
$$$$
