DAY_301_3BQD
 OpenBabel11121216223D

 73 78  0  0  1  0  0  0  0  0999 V2000
   44.5620   25.9160   10.4890 C   0  0  0  0  0  0  0  0  0  0  0  0
   40.9330   30.6630    5.7050 C   0  0  0  0  0  0  0  0  0  0  0  0
   40.0960   26.1200   10.9890 C   0  0  0  0  0  0  0  0  0  0  0  0
   37.5760   29.6320    8.7720 C   0  0  0  0  0  0  0  0  0  0  0  0
   37.5650   36.6330    3.9300 C   0  0  0  0  0  0  0  0  0  0  0  0
   37.6920   35.1850    4.2520 C   0  0  0  0  0  0  0  0  0  0  0  0
   37.4230   37.4170    5.1480 C   0  0  0  0  0  0  0  0  0  0  0  0
   37.7090   34.5830    5.4750 C   0  0  0  0  0  0  0  0  0  0  0  0
   37.4310   36.6720    6.5250 C   0  0  0  0  0  0  0  0  0  0  0  0
   42.5320   26.6100    9.3350 C   0  0  0  0  0  0  0  0  0  0  0  0
   40.5510   28.4780   12.1480 C   0  0  0  0  0  0  0  0  0  0  0  0
   38.1420   31.6110    9.9440 C   0  0  0  0  0  0  0  0  0  0  0  0
   37.1130   34.0970   10.2160 C   0  0  0  0  0  0  0  0  0  0  0  0
   41.1150   29.0380    7.6490 C   0  0  0  0  0  0  0  0  0  0  0  0
   39.0030   32.2150    7.2770 C   0  0  0  0  0  0  0  0  0  0  0  0
   41.7310   26.2440   14.4560 C   0  0  0  0  0  0  0  0  0  0  0  0
   37.5950   35.2410    6.7120 C   0  0  0  0  0  0  0  0  0  0  0  0
   43.0420   25.9020   10.5710 C   0  0  2  0  0  0  0  0  0  0  0  0
   41.7200   27.8560    9.9030 C   0  0  1  0  0  0  0  0  0  0  0  0
   39.5070   29.2590   11.3730 C   0  0  1  0  0  0  0  0  0  0  0  0
   40.6080   28.5240    9.0420 C   0  0  1  0  0  0  0  0  0  0  0  0
   40.0170   29.7340    9.9410 C   0  0  1  0  0  0  0  0  0  0  0  0
   40.4680   30.2300    6.9850 C   0  0  0  0  0  0  0  0  0  0  0  0
   37.8450   32.8480    9.5150 C   0  0  0  0  0  0  0  0  0  0  0  0
   39.3060   30.9660    7.7730 C   0  0  0  0  0  0  0  0  0  0  0  0
   38.2240   33.2600    8.1260 C   0  0  0  0  0  0  0  0  0  0  0  0
   42.2520   25.7520   13.0780 C   0  0  0  0  0  0  0  0  0  0  0  0
   41.1880   27.2840   11.3080 C   0  0  2  0  0  0  0  0  0  0  0  0
   38.8500   30.4950    9.1820 C   0  0  1  0  0  0  0  0  0  0  0  0
   42.5010   26.7130   11.8330 C   0  0  2  0  0  0  0  0  0  0  0  0
   37.2200   34.9760    8.9150 N   0  0  0  0  0  0  0  0  0  0  0  0
   37.5740   34.5120    7.7400 N   0  0  0  0  0  0  0  0  0  0  0  0
   41.2720   25.1960   15.2950 O   0  0  0  0  0  0  0  0  0  0  0  0
   38.3530   28.4230   11.2960 O   0  0  0  0  0  0  0  0  0  0  0  0
   43.4710   27.7710   12.1700 O   0  0  0  0  0  0  0  0  0  0  0  0
   42.4750   24.5520   12.9800 O   0  0  0  0  0  0  0  0  0  0  0  0
   44.9820   25.4098   11.3707 H   0  0  0  0  0  0  0  0  0  0  0  0
   44.8847   25.3920    9.5772 H   0  0  0  0  0  0  0  0  0  0  0  0
   44.9179   26.9564   10.4596 H   0  0  0  0  0  0  0  0  0  0  0  0
   40.3501   31.5371    5.3790 H   0  0  0  0  0  0  0  0  0  0  0  0
   41.9961   30.9367    5.7746 H   0  0  0  0  0  0  0  0  0  0  0  0
   40.8109   29.8484    4.9759 H   0  0  0  0  0  0  0  0  0  0  0  0
   40.5743   25.3167   10.4094 H   0  0  0  0  0  0  0  0  0  0  0  0
   39.7104   25.7102   11.9342 H   0  0  0  0  0  0  0  0  0  0  0  0
   39.2650   26.5464   10.4079 H   0  0  0  0  0  0  0  0  0  0  0  0
   37.8983   28.7528    8.1949 H   0  0  0  0  0  0  0  0  0  0  0  0
   37.0495   29.3017    9.6796 H   0  0  0  0  0  0  0  0  0  0  0  0
   36.8998   30.2454    8.1584 H   0  0  0  0  0  0  0  0  0  0  0  0
   37.5766   37.0444    2.9315 H   0  0  0  0  0  0  0  0  0  0  0  0
   37.7828   34.5232    3.4034 H   0  0  0  0  0  0  0  0  0  0  0  0
   37.3144   38.4906    5.1029 H   0  0  0  0  0  0  0  0  0  0  0  0
   37.8195   33.5089    5.4953 H   0  0  0  0  0  0  0  0  0  0  0  0
   37.3036   37.2741    7.4125 H   0  0  0  0  0  0  0  0  0  0  0  0
   43.3623   26.9355    8.6911 H   0  0  0  0  0  0  0  0  0  0  0  0
   41.8847   25.9516    8.7371 H   0  0  0  0  0  0  0  0  0  0  0  0
   41.3582   29.1690   12.4325 H   0  0  0  0  0  0  0  0  0  0  0  0
   40.0712   28.0535   13.0422 H   0  0  0  0  0  0  0  0  0  0  0  0
   38.7934   31.7865   10.8129 H   0  0  0  0  0  0  0  0  0  0  0  0
   37.1607   31.1776   10.1876 H   0  0  0  0  0  0  0  0  0  0  0  0
   36.0920   33.9072   10.5788 H   0  0  0  0  0  0  0  0  0  0  0  0
   37.6146   34.5032   11.1067 H   0  0  0  0  0  0  0  0  0  0  0  0
   41.9354   28.5340    7.1598 H   0  0  0  0  0  0  0  0  0  0  0  0
   39.3134   32.4746    6.2757 H   0  0  0  0  0  0  0  0  0  0  0  0
   42.5562   26.7581   14.9705 H   0  0  0  0  0  0  0  0  0  0  0  0
   40.8922   26.9332   14.2788 H   0  0  0  0  0  0  0  0  0  0  0  0
   42.7013   24.8595   10.6550 H   0  0  0  0  0  0  0  0  0  0  0  0
   42.3819   28.7335    9.9473 H   0  0  0  0  0  0  0  0  0  0  0  0
   39.2725   30.2003   11.8916 H   0  0  0  0  0  0  0  0  0  0  0  0
   39.8360   27.7824    8.7889 H   0  0  0  0  0  0  0  0  0  0  0  0
   40.8584   30.4233   10.1048 H   0  0  0  0  0  0  0  0  0  0  0  0
   41.4683   24.3583   14.8922 H   0  0  0  0  0  0  0  0  0  0  0  0
   37.6673   28.8724   10.8161 H   0  0  0  0  0  0  0  0  0  0  0  0
   43.1579   28.2607   12.9214 H   0  0  0  0  0  0  0  0  0  0  0  0
  1 18  1  0  0  0  0
  1 37  1  0  0  0  0
  1 38  1  0  0  0  0
  1 39  1  0  0  0  0
  2 23  1  0  0  0  0
  2 40  1  0  0  0  0
  2 41  1  0  0  0  0
  2 42  1  0  0  0  0
  3 43  1  0  0  0  0
  3 44  1  0  0  0  0
  3 45  1  0  0  0  0
  4 46  1  0  0  0  0
  4 47  1  0  0  0  0
  4 48  1  0  0  0  0
  5  6  2  0  0  0  0
  5  7  1  0  0  0  0
  5 49  1  0  0  0  0
  6  8  1  0  0  0  0
  6 50  1  0  0  0  0
  7  9  2  0  0  0  0
  7 51  1  0  0  0  0
  8 17  2  0  0  0  0
  8 52  1  0  0  0  0
  9 17  1  0  0  0  0
  9 53  1  0  0  0  0
 10 18  1  0  0  0  0
 10 19  1  0  0  0  0
 10 54  1  0  0  0  0
 10 55  1  0  0  0  0
 11 20  1  0  0  0  0
 11 28  1  0  0  0  0
 11 56  1  0  0  0  0
 11 57  1  0  0  0  0
 12 24  1  0  0  0  0
 12 29  1  0  0  0  0
 12 58  1  0  0  0  0
 12 59  1  0  0  0  0
 13 24  1  0  0  0  0
 13 31  1  0  0  0  0
 13 60  1  0  0  0  0
 13 61  1  0  0  0  0
 14 21  1  0  0  0  0
 14 23  2  0  0  0  0
 14 62  1  0  0  0  0
 15 25  2  0  0  0  0
 15 26  1  0  0  0  0
 15 63  1  0  0  0  0
 16 27  1  0  0  0  0
 16 33  1  0  0  0  0
 16 64  1  0  0  0  0
 16 65  1  0  0  0  0
 17 32  1  0  0  0  0
 18 30  1  0  0  0  0
 18 66  1  1  0  0  0
 19 21  1  0  0  0  0
 19 28  1  0  0  0  0
 19 67  1  1  0  0  0
 20 22  1  0  0  0  0
 20 34  1  0  0  0  0
 20 68  1  1  0  0  0
 21 22  1  0  0  0  0
 21 69  1  6  0  0  0
 22 29  1  0  0  0  0
 22 70  1  1  0  0  0
 23 25  1  0  0  0  0
 24 26  2  0  0  0  0
 25 29  1  0  0  0  0
 26 32  1  0  0  0  0
 27 36  2  0  0  0  0
 28  3  1  6  0  0  0
 28 30  1  0  0  0  0
 29  4  1  6  0  0  0
 30 27  1  1  0  0  0
 30 35  1  0  0  0  0
 31 32  2  0  0  0  0
 33 71  1  0  0  0  0
 34 72  1  0  0  0  0
 35 73  1  0  0  0  0
M  END
$$$$
