C4F_1_3C4F
 OpenBabel11121216223D

 32 34  0  0  0  0  0  0  0  0999 V2000
    5.4000    2.0210   12.8800 C   0  0  0  0  0  0  0  0  0  0  0  0
    4.2060    5.0210   15.5990 C   0  0  0  0  0  0  0  0  0  0  0  0
    8.3000    3.2620   22.4950 C   0  0  0  0  0  0  0  0  0  0  0  0
    4.9500    5.2000   16.7580 C   0  0  0  0  0  0  0  0  0  0  0  0
    4.6520    4.1380   14.6250 C   0  0  0  0  0  0  0  0  0  0  0  0
    8.0430    3.8480   21.2630 C   0  0  0  0  0  0  0  0  0  0  0  0
    7.5770    2.1380   22.9120 C   0  0  0  0  0  0  0  0  0  0  0  0
    6.5540    3.6050   15.9860 C   0  0  0  0  0  0  0  0  0  0  0  0
    5.6180    2.5630   18.9920 C   0  0  0  0  0  0  0  0  0  0  0  0
    6.9400    4.6490   18.2150 C   0  0  0  0  0  0  0  0  0  0  0  0
    6.1250    4.4960   16.9510 C   0  0  0  0  0  0  0  0  0  0  0  0
    5.8310    3.4370   14.8170 C   0  0  0  0  0  0  0  0  0  0  0  0
    7.0870    3.2210   20.5030 C   0  0  0  0  0  0  0  0  0  0  0  0
    6.5410    3.5140   19.1600 C   0  0  0  0  0  0  0  0  0  0  0  0
    6.4020    2.1390   20.9460 C   0  0  0  0  0  0  0  0  0  0  0  0
    5.5370    1.7580   19.9970 N   0  0  0  0  0  0  0  0  0  0  0  0
    6.6240    1.5970   22.1430 N   0  0  0  0  0  0  0  0  0  0  0  0
    6.2850    2.5130   13.8960 O   0  0  0  0  0  0  0  0  0  0  0  0
    5.9350    1.2995   12.2450 H   0  0  0  0  0  0  0  0  0  0  0  0
    4.5390    1.5255   13.3525 H   0  0  0  0  0  0  0  0  0  0  0  0
    5.0471    2.8608   12.2634 H   0  0  0  0  0  0  0  0  0  0  0  0
    3.2847    5.5662   15.4561 H   0  0  0  0  0  0  0  0  0  0  0  0
    9.0635    3.6764   23.1367 H   0  0  0  0  0  0  0  0  0  0  0  0
    4.6092    5.8929   17.5130 H   0  0  0  0  0  0  0  0  0  0  0  0
    4.0807    3.9979   13.7192 H   0  0  0  0  0  0  0  0  0  0  0  0
    8.5590    4.7349   20.9261 H   0  0  0  0  0  0  0  0  0  0  0  0
    7.7926    1.6980   23.8745 H   0  0  0  0  0  0  0  0  0  0  0  0
    7.4584    3.0363   16.1444 H   0  0  0  0  0  0  0  0  0  0  0  0
    5.0040    2.4770   18.1077 H   0  0  0  0  0  0  0  0  0  0  0  0
    8.0135    4.5887   17.9829 H   0  0  0  0  0  0  0  0  0  0  0  0
    6.7327    5.6224   18.6836 H   0  0  0  0  0  0  0  0  0  0  0  0
    4.9231    0.9710   20.0580 H   0  0  0  0  0  0  0  0  0  0  0  0
  1 18  1  0  0  0  0
  1 19  1  0  0  0  0
  1 20  1  0  0  0  0
  1 21  1  0  0  0  0
  2  4  2  0  0  0  0
  2  5  1  0  0  0  0
  2 22  1  0  0  0  0
  3  6  2  0  0  0  0
  3  7  1  0  0  0  0
  3 23  1  0  0  0  0
  4 11  1  0  0  0  0
  4 24  1  0  0  0  0
  5 12  2  0  0  0  0
  5 25  1  0  0  0  0
  6 13  1  0  0  0  0
  6 26  1  0  0  0  0
  7 17  2  0  0  0  0
  7 27  1  0  0  0  0
  8 11  2  0  0  0  0
  8 12  1  0  0  0  0
  8 28  1  0  0  0  0
  9 14  2  0  0  0  0
  9 16  1  0  0  0  0
  9 29  1  0  0  0  0
 10 11  1  0  0  0  0
 10 14  1  0  0  0  0
 10 30  1  0  0  0  0
 10 31  1  0  0  0  0
 12 18  1  0  0  0  0
 13 14  1  0  0  0  0
 13 15  2  0  0  0  0
 15 16  1  0  0  0  0
 15 17  1  0  0  0  0
 16 32  1  0  0  0  0
M  END
$$$$
