****
 OpenBabel10121102053D

 28 30  0  0  0  0  0  0  0  0999 V2000
   24.7810   27.7440   28.1860 N   0  0  0  0  0
   28.4790   31.4500   27.6600 C   0  0  0  0  0
   27.1430   31.0470   28.2300 N   0  0  0  0  0
   26.4690   29.8110   28.1300 C   0  0  0  0  0
   26.8930   28.6810   27.4880 N   0  0  0  0  0
   26.0150   27.6920   27.5540 C   0  0  0  0  0
   24.3340   28.8830   28.8410 C   0  0  0  0  0
   25.2540   30.0170   28.8170 C   0  0  0  0  0
   25.1600   31.2710   29.3340 N   0  0  0  0  0
   26.2870   31.8800   28.9750 C   0  0  0  0  0
   23.0780   28.9110   29.4620 N   0  0  0  0  0
   22.3530   27.6590   29.6380 C   0  0  0  0  0
   22.1060   27.1870   30.9280 C   0  0  0  0  0
   21.4060   25.9960   31.1250 C   0  0  0  0  0
   20.9450   25.2620   30.0290 C   0  0  0  0  0
   21.1870   25.7260   28.7310 C   0  0  0  0  0
   20.6210   24.8320   27.3770 Cl  0  0  0  0  0
   21.8890   26.9230   28.5360 C   0  0  0  0  0
   28.6874   32.4934   27.9391 H   0  0  0  0  0
   29.2710   30.8051   28.0683 H   0  0  0  0  0
   28.4584   31.3699   26.5631 H   0  0  0  0  0
   26.2854   26.7550   27.0694 H   0  0  0  0  0
   26.5221   32.9123   29.2301 H   0  0  0  0  0
   22.6744   29.8007   29.7883 H   0  0  0  0  0
   22.4607   27.7501   31.7837 H   0  0  0  0  0
   21.2193   25.6391   32.1314 H   0  0  0  0  0
   20.4020   24.3366   30.1835 H   0  0  0  0  0
   22.0746   27.2822   27.5302 H   0  0  0  0  0
  1  7  2  0  0  0
  1  6  1  0  0  0
  3  2  1  0  0  0
  2 19  1  0  0  0
  2 20  1  0  0  0
  2 21  1  0  0  0
  4  3  1  0  0  0
  3 10  1  0  0  0
  5  4  1  0  0  0
  4  8  2  0  0  0
  6  5  2  0  0  0
  6 22  1  0  0  0
  8  7  1  0  0  0
  7 11  1  0  0  0
  9  8  1  0  0  0
 10  9  2  0  0  0
 10 23  1  0  0  0
 11 12  1  0  0  0
 11 24  1  0  0  0
 12 18  2  0  0  0
 12 13  1  0  0  0
 13 14  2  0  0  0
 13 25  1  0  0  0
 14 15  1  0  0  0
 14 26  1  0  0  0
 15 16  2  0  0  0
 15 27  1  0  0  0
 16 18  1  0  0  0
 16 17  1  0  0  0
 18 28  1  0  0  0
M  END
$$$$
