
 OpenBabel06051719513D

 14 14  0  0  0  0              2 V2000
   38.2930  -46.7110   80.9370 C   0  0  0  0  0
   36.9850  -45.5210   75.2940 C   0  0  0  0  0
   38.8660  -45.6010   80.0750 C   0  0  0  0  0
   37.8540  -45.1340   79.0500 C   0  0  0  0  0
   38.3500  -44.0300   76.8380 C   0  0  0  0  0
   37.0480  -44.5100   76.2540 C   0  0  0  0  0
   35.8360  -43.9670   76.6710 C   0  0  0  0  0
   34.6180  -44.3960   76.1610 C   0  0  0  0  0
   34.6010  -45.3970   75.2120 C   0  0  0  0  0
   35.7770  -45.9630   74.7700 C   0  0  0  0  0
   38.2970  -43.9040   78.3260 N   0  0  0  0  0
   39.3030  -44.5290   80.9000 O   0  0  0  0  0
   38.4490  -46.2630   74.7020 Cl  0  0  0  0  0
   35.8410  -42.7060   77.8780 Cl  0  0  0  0  0
  1  3  1  0  0  0
  2  6  2  0  0  0
  2 10  1  0  0  0
  2 13  1  0  0  0
  3  4  1  0  0  0
  3 12  1  0  0  0
  4 11  1  0  0  0
  5  6  1  0  0  0
  5 11  1  0  0  0
  6  7  1  0  0  0
  7  8  2  0  0  0
  7 14  1  0  0  0
  8  9  1  0  0  0
  9 10  2  0  0  0
M  CHG  1  11   1
M  END
