DIH_301_3BGS
 OpenBabel11121216223D

 36 38  0  0  1  0  0  0  0  0999 V2000
   15.3140   12.5680   55.8720 C   0  0  0  0  0  0  0  0  0  0  0  0
   12.8200    8.7810   55.9870 C   0  0  0  0  0  0  0  0  0  0  0  0
   14.4050   11.3140   59.5270 C   0  0  0  0  0  0  0  0  0  0  0  0
   14.7430   13.6140   60.0630 C   0  0  0  0  0  0  0  0  0  0  0  0
   13.6400   12.9170   57.8490 C   0  0  0  0  0  0  0  0  0  0  0  0
   16.7320   10.9600   60.1650 C   0  0  0  0  0  0  0  0  0  0  0  0
   14.2510   12.1500   56.6800 C   0  0  0  0  0  0  0  0  0  0  0  0
   14.7670   10.5260   55.1120 C   0  0  0  0  0  0  0  0  0  0  0  0
   13.9200   10.8040   56.1780 C   0  0  0  0  0  0  0  0  0  0  0  0
   14.5940    9.2850   54.4940 C   0  0  0  0  0  0  0  0  0  0  0  0
   15.3500   11.3370   60.7030 C   0  0  1  0  0  0  0  0  0  0  0  0
   15.2100   12.7530   61.2600 C   0  0  2  0  0  0  0  0  0  0  0  0
   15.6060   11.6060   54.9580 N   0  0  0  0  0  0  0  0  0  0  0  0
   13.6190    8.4360   54.9600 N   0  0  0  0  0  0  0  0  0  0  0  0
   12.9580    9.9320   56.6180 N   0  0  0  0  0  0  0  0  0  0  0  0
   14.6250   12.6590   58.9290 N   0  0  0  0  0  0  0  0  0  0  0  0
   17.4940   12.1340   59.8980 O   0  0  0  0  0  0  0  0  0  0  0  0
   14.1980   12.6870   62.3130 O   0  0  0  0  0  0  0  0  0  0  0  0
   15.3310    8.9110   53.5410 O   0  0  0  0  0  0  0  0  0  0  0  0
   15.8263   13.5146   55.9615 H   0  0  0  0  0  0  0  0  0  0  0  0
   12.0455    8.0978   56.3030 H   0  0  0  0  0  0  0  0  0  0  0  0
   14.6428   10.5042   58.8216 H   0  0  0  0  0  0  0  0  0  0  0  0
   13.3606   11.1663   59.8390 H   0  0  0  0  0  0  0  0  0  0  0  0
   13.7771   14.0954   60.2759 H   0  0  0  0  0  0  0  0  0  0  0  0
   15.4724   14.4060   59.8379 H   0  0  0  0  0  0  0  0  0  0  0  0
   13.5360   13.9902   57.6311 H   0  0  0  0  0  0  0  0  0  0  0  0
   12.6363   12.5481   58.1070 H   0  0  0  0  0  0  0  0  0  0  0  0
   17.2579   10.3496   60.9139 H   0  0  0  0  0  0  0  0  0  0  0  0
   16.6139   10.3856   59.2344 H   0  0  0  0  0  0  0  0  0  0  0  0
   15.1525   10.6278   61.5203 H   0  0  0  0  0  0  0  0  0  0  0  0
   16.1311   13.1767   61.6868 H   0  0  0  0  0  0  0  0  0  0  0  0
   16.3288   11.6733   54.2702 H   0  0  0  0  0  0  0  0  0  0  0  0
   13.5005    7.5425   54.5268 H   0  0  0  0  0  0  0  0  0  0  0  0
   15.4793   12.7614   58.4194 H   0  0  0  0  0  0  0  0  0  0  0  0
   18.3490   11.8881   59.5649 H   0  0  0  0  0  0  0  0  0  0  0  0
   14.5196   12.1516   63.0288 H   0  0  0  0  0  0  0  0  0  0  0  0
  1  7  2  0  0  0  0
  1 13  1  0  0  0  0
  1 20  1  0  0  0  0
  2 14  1  0  0  0  0
  2 15  2  0  0  0  0
  2 21  1  0  0  0  0
  3 11  1  0  0  0  0
  3 16  1  0  0  0  0
  3 22  1  0  0  0  0
  3 23  1  0  0  0  0
  4 12  1  0  0  0  0
  4 16  1  0  0  0  0
  4 24  1  0  0  0  0
  4 25  1  0  0  0  0
  5  7  1  0  0  0  0
  5 16  1  0  0  0  0
  5 26  1  0  0  0  0
  5 27  1  0  0  0  0
  6 11  1  0  0  0  0
  6 17  1  0  0  0  0
  6 28  1  0  0  0  0
  6 29  1  0  0  0  0
  7  9  1  0  0  0  0
  8  9  2  0  0  0  0
  8 10  1  0  0  0  0
  8 13  1  0  0  0  0
  9 15  1  0  0  0  0
 10 14  1  0  0  0  0
 10 19  2  0  0  0  0
 11 12  1  0  0  0  0
 11 30  1  1  0  0  0
 12 18  1  0  0  0  0
 12 31  1  1  0  0  0
 13 32  1  0  0  0  0
 14 33  1  0  0  0  0
 16 34  1  0  0  0  0
 17 35  1  0  0  0  0
 18 36  1  0  0  0  0
M  END
$$$$
