TES_A1000_2AM9
 OpenBabel11121216213D

 51 54  0  0  1  0  0  0  0  0999 V2000
   28.5870   -0.2730    6.1200 C   0  0  0  0  0  0  0  0  0  0  0  0
   26.3440    3.8460    6.7980 C   0  0  0  0  0  0  0  0  0  0  0  0
   26.6680   -1.1630    3.8940 C   0  0  0  0  0  0  0  0  0  0  0  0
   27.9500   -1.9990    3.6690 C   0  0  0  0  0  0  0  0  0  0  0  0
   24.8770    1.4740    4.0590 C   0  0  0  0  0  0  0  0  0  0  0  0
   26.0870    6.5150    5.0500 C   0  0  0  0  0  0  0  0  0  0  0  0
   28.5550    2.7000    5.0980 C   0  0  0  0  0  0  0  0  0  0  0  0
   24.0890    2.5690    4.7900 C   0  0  0  0  0  0  0  0  0  0  0  0
   26.9610    5.2750    4.7480 C   0  0  0  0  0  0  0  0  0  0  0  0
   29.3370    1.5340    4.4490 C   0  0  0  0  0  0  0  0  0  0  0  0
   24.1250    5.0470    4.4570 C   0  0  0  0  0  0  0  0  0  0  0  0
   24.7140    6.3800    4.4550 C   0  0  2  0  0  0  0  0  0  0  0  0
   26.3060    1.3630    4.6670 C   0  0  1  0  0  0  0  0  0  0  0  0
   27.1900    0.2970    3.9730 C   0  0  1  0  0  0  0  0  0  0  0  0
   27.0680    2.7200    4.5650 C   0  0  1  0  0  0  0  0  0  0  0  0
   29.1270   -0.9850    3.6840 C   0  0  1  0  0  0  0  0  0  0  0  0
   24.8080    3.9090    4.8030 C   0  0  0  0  0  0  0  0  0  0  0  0
   28.6170    0.1640    4.6020 C   0  0  2  0  0  0  0  0  0  0  0  0
   26.3230    3.9250    5.2440 C   0  0  1  0  0  0  0  0  0  0  0  0
   24.0440    7.4060    3.9390 O   0  0  0  0  0  0  0  0  0  0  0  0
   30.3270   -1.5900    4.2060 O   0  0  0  0  0  0  0  0  0  0  0  0
   28.0755   -1.2424    6.2130 H   0  0  0  0  0  0  0  0  0  0  0  0
   29.6169   -0.3646    6.4954 H   0  0  0  0  0  0  0  0  0  0  0  0
   28.0479    0.4838    6.7087 H   0  0  0  0  0  0  0  0  0  0  0  0
   25.8943    2.8964    7.1235 H   0  0  0  0  0  0  0  0  0  0  0  0
   27.3835    3.9002    7.1537 H   0  0  0  0  0  0  0  0  0  0  0  0
   25.7692    4.6858    7.2155 H   0  0  0  0  0  0  0  0  0  0  0  0
   25.9544   -1.2906    3.0667 H   0  0  0  0  0  0  0  0  0  0  0  0
   26.1539   -1.4569    4.8210 H   0  0  0  0  0  0  0  0  0  0  0  0
   28.0712   -2.7468    4.4666 H   0  0  0  0  0  0  0  0  0  0  0  0
   27.9049   -2.5278    2.7055 H   0  0  0  0  0  0  0  0  0  0  0  0
   24.3561    0.5117    4.1714 H   0  0  0  0  0  0  0  0  0  0  0  0
   24.9526    1.7287    2.9916 H   0  0  0  0  0  0  0  0  0  0  0  0
   25.9915    6.6241    6.1404 H   0  0  0  0  0  0  0  0  0  0  0  0
   26.5730    7.4039    4.6215 H   0  0  0  0  0  0  0  0  0  0  0  0
   28.5472    2.5682    6.1900 H   0  0  0  0  0  0  0  0  0  0  0  0
   29.0446    3.6515    4.8431 H   0  0  0  0  0  0  0  0  0  0  0  0
   23.1234    2.6996    4.2795 H   0  0  0  0  0  0  0  0  0  0  0  0
   23.9360    2.2485    5.8311 H   0  0  0  0  0  0  0  0  0  0  0  0
   27.0992    5.2095    3.6587 H   0  0  0  0  0  0  0  0  0  0  0  0
   27.9280    5.4047    5.2560 H   0  0  0  0  0  0  0  0  0  0  0  0
   29.4502    1.7478    3.3759 H   0  0  0  0  0  0  0  0  0  0  0  0
   30.3213    1.4642    4.9351 H   0  0  0  0  0  0  0  0  0  0  0  0
   23.0887    4.9494    4.1688 H   0  0  0  0  0  0  0  0  0  0  0  0
   24.5973    7.4574    4.2665 H   0  0  0  0  0  0  0  0  0  0  0  0
   26.1421    1.0696    5.7144 H   0  0  0  0  0  0  0  0  0  0  0  0
   27.1839    0.7247    2.9596 H   0  0  0  0  0  0  0  0  0  0  0  0
   27.0961    2.8709    3.4758 H   0  0  0  0  0  0  0  0  0  0  0  0
   29.3968   -0.6285    2.6789 H   0  0  0  0  0  0  0  0  0  0  0  0
   23.2015    7.1057    3.6188 H   0  0  0  0  0  0  0  0  0  0  0  0
   31.0304   -0.9515    4.2049 H   0  0  0  0  0  0  0  0  0  0  0  0
  1 22  1  0  0  0  0
  1 23  1  0  0  0  0
  1 24  1  0  0  0  0
  2 25  1  0  0  0  0
  2 26  1  0  0  0  0
  2 27  1  0  0  0  0
  3  4  1  0  0  0  0
  3 14  1  0  0  0  0
  3 28  1  0  0  0  0
  3 29  1  0  0  0  0
  4 16  1  0  0  0  0
  4 30  1  0  0  0  0
  4 31  1  0  0  0  0
  5  8  1  0  0  0  0
  5 13  1  0  0  0  0
  5 32  1  0  0  0  0
  5 33  1  0  0  0  0
  6  9  1  0  0  0  0
  6 12  1  0  0  0  0
  6 34  1  0  0  0  0
  6 35  1  0  0  0  0
  7 10  1  0  0  0  0
  7 15  1  0  0  0  0
  7 36  1  0  0  0  0
  7 37  1  0  0  0  0
  8 17  1  0  0  0  0
  8 38  1  0  0  0  0
  8 39  1  0  0  0  0
  9 19  1  0  0  0  0
  9 40  1  0  0  0  0
  9 41  1  0  0  0  0
 10 18  1  0  0  0  0
 10 42  1  0  0  0  0
 10 43  1  0  0  0  0
 11 12  1  0  0  0  0
 11 17  2  0  0  0  0
 11 44  1  0  0  0  0
 12 20  1  0  0  0  0
 12 45  1  1  0  0  0
 13 14  1  0  0  0  0
 13 15  1  0  0  0  0
 13 46  1  1  0  0  0
 14 18  1  0  0  0  0
 14 47  1  6  0  0  0
 15 19  1  0  0  0  0
 15 48  1  6  0  0  0
 16 18  1  0  0  0  0
 16 21  1  0  0  0  0
 16 49  1  6  0  0  0
 17 19  1  0  0  0  0
 18  1  1  1  0  0  0
 19  2  1  1  0  0  0
 20 50  1  0  0  0  0
 21 51  1  0  0  0  0
M  END
$$$$
